<?xml version="1.0" encoding="UTF-8"?>

<net version="1.16" junctionCornerDetail="5" limitTurnSpeed="5.50" xmlns:xsi="http://www.w3.org/2001/XMLSchema-instance" xsi:noNamespaceSchemaLocation="http://sumo.dlr.de/xsd/net_file.xsd">

    <location netOffset="0.00,0.00" convBoundary="0.00,0.00,500.00,0.00" origBoundary="-10000000000.00,-10000000000.00,10000000000.00,10000000000.00" projParameter="!"/>

    <edge id="gneE6" from="e0" to="e1" priority="-1">
        <lane id="gneE6_0" index="0" speed="130.00" length="500.00" shape="0.00,-8.00 500.00,-8.00"/>
        <lane id="gneE6_1" index="1" speed="130.00" length="500.00" shape="0.00,-4.80 500.00,-4.80"/>
        <lane id="gneE6_2" index="2" speed="130.00" length="500.00" shape="0.00,-1.60 500.00,-1.60"/>
    </edge>

    <junction id="e0" type="dead_end" x="0.00" y="0.00" incLanes="" intLanes="" shape="0.00,0.00 0.00,-9.60"/>
    <junction id="e1" type="dead_end" x="500.00" y="0.00" incLanes="gneE6_0 gneE6_1 gneE6_2" intLanes="" shape="500.00,-9.60 500.00,0.00"/>

</net>
